Circuit: * C:\Users\Flore\OneDrive\Desktop\uni\session7\APP1\S7_PCB\05 - SIMULATION\SPICE FILTERS\ADC.asc

.OP point found by inspection.

Date: Sun Jan 28 10:08:20 2024
Total elapsed time: 0.125 seconds.

tnom = 27
temp = 27
method = trap
totiter = 0
traniter = 0
tranpoints = 0
accept = 0
rejected = 0
matrix size = 6
fillins = 0
solver = Normal
Avg thread counts: 12.0/0.0/0.0/2.5
Matrix Compiler1:      13 opcodes
Matrix Compiler2:      33 opcodes
